test/data/case5_acdc_sssc_3_grids.m
% used in tests of,
% - non-contiguous bus ids
% - tranformer orentation swapping
% - dual values
% - clipping cost functions using ncost
% - linear objective function

function mpc = case5
mpc.version = '2';
mpc.baseMVA = 100.0;

%% bus data
%	bus_i	type	Pd	Qd	Gs	Bs	area	Vm	Va	baseKV	zone	Vmax	Vmin
mpc.bus = [
	1	 2	 0.0	 0.0	 0.0	 0.0	 1	    1.00000	    2.80377	 230.0	 1	    1.10000	    0.90000; % grid 1
	2	 1	 300.0	 98.61	 0.0	 0.0	 1	    1.08407	   -0.73465	 230.0	 1	    1.10000	    0.90000;
	3	 2	 300.0	 98.61	 0.0	 0.0	 1	    1.00000	   -0.55972	 230.0	 1	    1.10000	    0.90000;
	4	 3	 400.0	 131.47	 0.0	 0.0	 1	    1.00000	    0.00000	 230.0	 1	    1.10000	    0.90000;
	5	 2	 0.0	 0.0	 0.0	 0.0	 1	    1.00000	    3.59033	 230.0	 1	    1.10000	    0.90000;
	6	 1	 0.0	 0.0	 0.0	 0.0	 1	    1.00000	    3.59033	 230.0	 1	    1.10000	    0.90000;

	7	 2	 0.0	 0.0	 0.0	 0.0	 1	    1.00000	    2.80377	 230.0	 2	    1.10000	    0.90000; % grid 2
	8	 1	 300.0	 98.61	 0.0	 0.0	 1	    1.08407	   -0.73465	 230.0	 2	    1.10000	    0.90000;
	9	 2	 300.0	 98.61	 0.0	 0.0	 1	    1.00000	   -0.55972	 230.0	 2	    1.10000	    0.90000;
	10	 2	 400.0	 131.47	 0.0	 0.0	 1	    1.00000	    0.00000	 230.0	 2	    1.10000	    0.90000;
	11	 2	 0.0	 0.0	 0.0	 0.0	 1	    1.00000	    3.59033	 230.0	 2	    1.10000	    0.90000;
	12	 1	 0.0	 0.0	 0.0	 0.0	 1	    1.00000	    3.59033	 230.0	 2	    1.10000	    0.90000;
	
	13	 1	 0.0	 0.0	 0.0	 0.0	 1	    1.00000	    3.59033	 230.0	 3	    1.10000	    0.90000; % grid 3
	14	 1	 0.0	 0.0	 0.0	 0.0	 1	    1.00000	    3.59033	 230.0	 3	    1.10000	    0.90000;
];

%% generator data
%	bus	Pg	Qg	Qmax	Qmin	Vg	mBase	status	Pmax	Pmin
mpc.gen = [
	1	 40.0	 		 30.0	 	30.0	 -30.0	 1.07762	 100.0	 1	 40.0	 0.0;
	1	 170.0	 		 127.5	 	127.5	 -127.5	 1.07762	 100.0	 1	 170.0	 0.0;
	3	 324.498	 	 390.0	 	390.0	 -390.0	 1.1	 	 100.0	 1	 520.0	 0.0;
	4	 0.0	 		-10.802	 	150.0	 -150.0	 1.06414	 100.0	 1	 200.0	 0.0;
	5	 470.694	 	-165.039	450.0	 -450.0	 1.06907	 100.0	 1	 600.0	 0.0;

	7	 40.0	 		 30.0	 	30.0	 -30.0	 1.07762	 100.0	 1	 40.0	 0.0;
	7	 170.0	 		 127.5	 	127.5	 -127.5	 1.07762	 100.0	 1	 170.0	 0.0;
	9	 324.498	 	 390.0	 	390.0	 -390.0	 1.1	 	 100.0	 1	 520.0	 0.0;
	10	 0.0	 		-10.802	 	150.0	 -150.0	 1.06414	 100.0	 1	 200.0	 0.0;
	11	 470.694	 	-165.039	450.0	 -450.0	 1.06907	 100.0	 1	 600.0	 0.0;

	13   0 				 0	 		450.0	 -450.0	 1.06907	 100.0	 1	 200.0	 -200.0;
	14   0 				 0	 		450.0	 -450.0	 1.06907	 100.0	 1	 200.0	 -200.0;
];

%% inertia_data
%column_names%   gen_id inertia_constant
mpc.inertia_constants = [
	1	1;
	2	1;
	3	1;
	4	1;
	5	1;
	6	1;
	7	1;
	8	1;
	9	1;
	10	1;
	11	1;
	12	1;
]

%% generator cost data
%	2	startup	shutdown	n	c(n-1)	...	c0 zone
mpc.gencost = [
	2	 100.0	 0.0	 3	   0.000000	  14.000000	   0.000000; % grid 1
	2	 110.0	 0.0	 3	   0.000000	  15.000000	   0.000000;
	2	 200.0	 0.0	 3	   0.000000	  30.000000	   0.000000;
	2	 400.0	 0.0	 3	   0.000000	  40.000000	   0.000000;
	2	 90.0	 0.0	 3	   0.000000	  10.000000	   0.000000;
	2	 100.0	 0.0	 3	   0.000000	  14.000000	   0.000000; % grid 2
	2	 110.0	 0.0	 3	   0.000000	  15.000000	   0.000000;
	2	 200.0	 0.0	 3	   0.000000	  30.000000	   0.000000;
	2	 400.0	 0.0	 3	   0.000000	  40.000000	   0.000000;
	2	 90.0	 0.0	 3	   0.000000	  10.000000	   0.000000;
	2	 90.0	 0.0	 3	   0.000000	  10.000000	   0.000000; % grid 3
	2	 90.0	 0.0	 3	   0.000000	  10.000000	   0.000000; 
];

%% branch data
%	fbus	tbus	r	x	b	rateA	rateB	rateC	ratio	angle	status	angmin	angmax
mpc.branch = [
1	 2	 0.00281	 0.0281	 0.00712	 400.0	 400.0	 400.0	 0.0	  0.0	 1	 -30.0	 30.0; % grid 1
1	 4	 0.00304	 0.0304	 0.00658	 426	 426	 426	 0.0	  0.0	 1	 -30.0	 30.0;
1	 5	 0.00064	 0.0064	 0.03126	 426	 426	 426	 0.0	  0.0	 1	 -30.0	 30.0;
2	 3	 0.00108	 0.0108	 0.01852	 426	 426	 426	 0.0	  0.0	 1	 -30.0	 30.0;
3	 4	 0.00297	 0.0297	 0.00674	 426	 426	 426	 0.0	  0.0	 1	 -30.0	 30.0;
%4	 6	 0.00200	 0.0200	 0.00674	 426	 426	 426	 0.0	  0.0	 1	 -30.0	 30.0;
4	 5	 0.00297	 0.0297	 0.00674	 240.0	 240.0	 240.0	 0.0	  0.0	 1	 -30.0	 30.0;

7	 8	 0.00281	 0.0281	 0.00712	 400.0	 400.0	 400.0	 0.0	  0.0	 1	 -30.0	 30.0; % grid 2
7	 10	 0.00304	 0.0304	 0.00658	 426	 426	 426	 0.0	  0.0	 1	 -30.0	 30.0;
7	 11	 0.00064	 0.0064	 0.03126	 426	 426	 426	 0.0	  0.0	 1	 -30.0	 30.0;
8	 9	 0.00108	 0.0108	 0.01852	 426	 426	 426	 0.0	  0.0	 1	 -30.0	 30.0;
9	 10	 0.00297	 0.0297	 0.00674	 426	 426	 426	 0.0	  0.0	 1	 -30.0	 30.0;
%10	 12	 0.00200	 0.0200	 0.00674	 426	 426	 426	 0.0	  0.0	 1	 -30.0	 30.0;
10	 11	 0.00297	 0.0297	 0.00674	 240.0	 240.0	 240.0	 0.0	  0.0	 1	 -30.0	 30.0;

10	 13	 0.00281	 0.0281	 0.00712	 400.0	 400.0	 400.0	 0.0	  0.0	 1	 -60.0	 60.0; % cross-border line grid 2 -  grid 3 
];

%% pst data
%column_names%	f_bus	t_bus	br_r	br_x	br_b	rate_a	rate_b	rate_c	angle	br_status	vqmin	vqmax
mpc.sssc = [
	6	 3	 0.000	 0.00001	 0.000	 426.0	 426.0	 426.0	  0.0	 1	 -0.00125	 0.00125;
	12	 9	 0.000	 0.00001	 0.000	 426.0	 426.0	 426.0	  0.0	 1	 -0.00125	 0.00125;
];


%% dc grid topology
%colunm_names% dcpoles
mpc.dcpol=2;
% numbers of poles (1=monopolar grid, 2=bipolar grid)
%% bus data
%column_names%   busdc_i grid    Pdc     Vdc     basekVdc    Vdcmax  Vdcmin  Cdc
mpc.busdc = [
    1              1       0       1       345         1.1     0.9     0; % grid 1
    2              1       0       1       345         1.1     0.9     0;
	3              1       0       1       345         1.1     0.9     0;
	4 			   1       0       1       345         1.1     0.9     0; 
	5 			   1       0       1       345         1.1     0.9     0; % grid 2
	6 			   1       0       1       345         1.1     0.9     0;
	7 			   1       0       1       345         1.1     0.9     0; % grid 3
];

%% converters
%column_names%   busdc_i busac_i type_dc type_ac P_g   Q_g islcc  Vtar    rtf xtf  transformer tm   bf filter    rc      xc  reactor   basekVac    Vmmax   Vmmin   Imax    status   LossA LossB  LossCrec LossCinv  droop      Pdcset    Vdcset  dVdcset Pacmax Pacmin Qacmax Qacmin
mpc.convdc = [
    1       2   1       1       -60    -40    0 1     0.01  0.01 1 1 0.01 1 0.01   0.01 1  345         1.1     0.9     1.1     1       1.103 0.887  2.885    2.885      0.0050    -58.6274   1.0079   0 100 -100 50 -50;
    2       3   2       1       0       0     0 1     0.01  0.01 1 1 0.01 1 0.01   0.01 1  345         1.1     0.9     1.1     1       1.103 0.887  2.885    2.885      0.0070     21.9013   1.0000   0 100 -100 50 -50;
    3       5   1       1       35       5    0 1     0.01  0.01 1 1 0.01 1 0.01   0.01 1  345         1.1     0.9     1.1     1       1.103 0.887  2.885    2.885      0.0050     36.1856   0.9978   0 100 -100 50 -50;
	4       4   1       1       35       5    0 1     0.01  0.01 1 1 0.01 1 0.01   0.01 1  345         1.1     0.9     1.1     1       1.103 0.887  2.885    2.885      0.0050     36.1856   0.9978   0 100 -100 50 -50;
	5       10   1       1      35       5    0 1     0.01  0.01 1 1 0.01 1 0.01   0.01 1  345         1.1     0.9     1.1     1       1.103 0.887  2.885    2.885      0.0050     36.1856   0.9978   0 100 -100 50 -50;
	6       8   1       1       35       5    0 1     0.01  0.01 1 1 0.01 1 0.01   0.01 1  345         1.1     0.9     1.1     1       1.103 0.887  2.885    2.885      0.0050     36.1856   0.9978   0 100 -100 50 -50;
	7       14   1       1      35       5    0 1     0.01  0.01 1 1 0.01 1 0.01   0.01 1  345         1.1     0.9     1.1     1       1.103 0.887  2.885    2.885      0.0050     36.1856   0.9978   0 100 -100 50 -50;
];

%% branches
%column_names%   fbusdc  tbusdc  r      l        c   rateA   rateB   rateC   status
mpc.branchdc = [
    1       2       0.052   0   0    100     100     100     1;
    2       3       0.052   0   0    100     100     100     1;
    1       3       0.073   0   0    100     100     100     1;
	4       5       0.007   0   0    200     200     200     1;
	6       7       0.007   0   0    200     200     200     1;
 ];



%column_names% load_id  pred_rel_max  cost_red  cost_curt  flex 
mpc.load_flex = [
                     1                0.3        100.0          10000.0       1;
                     2                0.3        100.0          10000.0       1;
                     3                0.3        100.0          10000.0       1;
					 4                0.3        100.0          10000.0       1;
                     5                0.3        100.0          10000.0       1;
                     6                0.3        100.0          10000.0       1;
];

